15
a2  0.000000
H  4.5840 -3.0420  2.9230
N -0.9250 -1.5160  3.2470
C  0.4000 -1.3310  3.2260
C  1.4310 -2.2890  3.0970
N  1.3600 -3.6770  2.9570
C  2.6110 -4.0510  2.8780
N  3.5150 -3.0130  2.9580
C  2.7510 -1.8760  3.0980
N  3.2320 -0.6110  3.2180
C  2.2620  0.2900  3.3470
N  0.9190 -0.0300  3.3460
H  2.9120 -5.0920  2.7590
H -1.5810 -0.6770  3.3540
H -1.3290 -2.5030  3.1560
H  2.5430  1.3370  3.4600
