13
C
O 2.2134 1.1188 0.0001
N -0.0595 0.9816 0.0001
N -2.4422 0.9214 0.0001
N 1.2935 -0.9744 0.0000
C -1.2406 0.2676 -0.0001
C -1.1643 -1.0726 -0.0002
C 1.2088 0.4056 -0.0003
C 0.1908 -1.6478 0.0003
H -0.1331 1.9946 0.0003
H -2.0223 -1.7317 -0.0003
H 0.2351 -2.7487 0.0005
H -3.3089 0.3984 0.0003
H -2.4533 1.9332 0.0006
