15
T
O -1.5193 1.8067 -0.0009
O 2.8394 0.2913 -0.0007
N 0.6643 1.0623 0.0011
N 1.1148 -1.2316 -0.0002
C -1.1612 -0.5432 0.0002
C -0.7129 0.8802 0.0004
C -0.2260 -1.5013 -0.0001
C -2.6300 -0.8189 -0.0001
C 1.6310 0.0545 0.0003
H -0.4787 -2.5553 -0.0004
H 1.0014 2.0209 0.0011
H 1.7564 -2.0191 -0.0009
H -3.1004 -0.3860 -0.8889
H -3.1006 -0.3862 0.8887
H -2.8433 -1.8931 -0.0003
